@<TRIPOS>MOLECULE
*****
 4 3 0 0 0
SMALL
GASTEIGER

@<TRIPOS>ATOM
      1 C           1.0283    0.0737    0.0671 C.2     1  LIG1        0.1071
      2 O           2.2529    0.0737    0.0671 O.2     1  LIG1       -0.3047
      3 H           0.4407   -0.8147   -0.2141 H       1  LIG1        0.0988
      4 H           0.4407    0.9622    0.3483 H       1  LIG1        0.0988
@<TRIPOS>BOND
     1     1     2    2
     2     1     3    1
     3     1     4    1
